/*--------------------------------*- C++ -*----------------------------------*\
| =========                 |                                                 |
| \\      /  F ield         | OpenFOAM: The Open Source CFD Toolbox           |
|  \\    /   O peration     | Version:  2206                                  |
|   \\  /    A nd           | Website:  www.openfoam.com                      |
|    \\/     M anipulation  |                                                 |
\*---------------------------------------------------------------------------*/
FoamFile
{
    version     2.0;
    format      ascii;
    class       dictionary;
    object      blockMeshDict;
}
// * * * * * * * * * * * * * * * * * * * * * * * * * * * * * * * * * * * * * //

scale   1;

vertices
(
    (-10 0 0)
    (20 0 0)
    (20 4 0)
    (-10 4 0)
    (-10 0 6.4)
    (20 0 6.4)
    (20  4 6.4)
    (-10  4 6.4)
);

blocks
(
    hex (0 1 2 3 4 5 6 7) (150 20 32) simpleGrading (1 1 1)
);

edges
(
);

boundary
(
    top
    {
        type patch;
        faces
        (
            (4 5 6 7)
        );
    }
    ground
    {
        type wall;
        faces
        (
            (0 3 2 1)
        );
    }
    inlet
    {
        type patch;
        faces
        (
            (0 4 7 3)
        );
    }
    outlet
    {
        type patch;
        faces
        (
            (1 2 6 5)
        );
    }
    right
    {
        type patch;
        faces
        (
            (3 7 6 2)
        );
    }
    left
    {
        type symmetry;
        faces
        (
            (0 1 5 4)
        );
    }
);


// ************************************************************************* //