/*--------------------------------*- C++ -*----------------------------------*\
| =========                 |                                                 |
| \\      /  F ield         | OpenFOAM: The Open Source CFD Toolbox           |
|  \\    /   O peration     | Version:  2206                                  |
|   \\  /    A nd           | Website:  www.openfoam.com                      |
|    \\/     M anipulation  |                                                 |
\*---------------------------------------------------------------------------*/
FoamFile
{
    format      ascii;
    class       dictionary;
    object      fvSolution;
}
// * * * * * * * * * * * * * * * * * * * * * * * * * * * * * * * * * * * * * //

    solvers
    {
        p
        {
        solver          PCG;
        preconditioner
        {
            preconditioner  GAMG;
            tolerance       1e-08;	//1e-06 1e-08
            relTol          0.0;	//0.01 0
            nVcycles        2;
            smoother        GaussSeidel;
            nPreSweeps      0;
            nPostSweeps     2;
            nFinestSweeps   2;
            cacheAgglomeration false;
            nCellsInCoarsestLevel 10;
            agglomerator    faceAreaPair;
            mergeLevels     1;
        }
        tolerance       1e-06;
        relTol          0;
        minIter 3;
        }

        U
        {
            solver          PBiCGStab;
            preconditioner  DILU;
            tolerance       1e-08;	//1e-08
            relTol          0;	//0.1 0.001

            minIter 1;
        }

        k
        {
            solver          PBiCGStab;
            preconditioner  DILU;
            tolerance       1e-08;	//1e-08
            relTol          0.001;	//0.1 0.001

            minIter 1;
        }

        omega
        {
            solver          PBiCGStab;
            preconditioner  DILU;
            tolerance       1e-08;	//1e-08
            relTol          0.001;	//0.1 0.001

            minIter 1;
        }
        Phi
        {
            solver GAMG;
            agglomerator faceAreaPair;
            mergeLevels 1;
            cacheAgglomeration true;
            nCellsInCoarsestLevel 200;
            tolerance 1e-6;
            relTol 0.01;
            smoother GaussSeidel;
            nPreSweeps 0;
            nPostSweeps 2;
            nFinestSweeps 2;
            minIter 1;
        }

    }

    potentialFlow
    {
        nNonOrthogonalCorrectors 10;
    }

    SIMPLE
    {
        consistent yes;
        nNonOrthogonalCorrectors 3;

        pRefCell 0;
        pRefValue 0;

        residualControl
        {
            p 		1.0e-7;
            U 		1.0e-7;
            k 		1.0e-7;
            omega 	1.0e-7;
        }

    }
    relaxationFactors
    {
        fields
        {
	    ".*"  0.7;
            //p     0.9;
        }
        equations
        {
	    ".*"  0.7;
            //U     0.9;
            //k     0.9;
            //omega 0.9;
        }
    }


